<additional xmlns:xsi="http://www.w3.org/2001/XMLSchema-instance" xsi:noNamespaceSchemaLocation="http://sumo.dlr.de/xsd/additional_file.xsd">
    <busStop id="CienciesI" lane="-29034631_0" startPos="20" endPos="50" lines="L1,L3"/>
    <busStop id="CienciesD" lane="29034631_0" startPos="261" endPos="291" lines="L3,L4"/>
    <busStop id="LletresL" lane="-29034631_0" startPos="220" endPos="250" lines="L1,L3"/>
    <busStop id="LletresR" lane="29034631_0" startPos="61" endPos="91" lines="L3, L4"/>
    <busStop id="EducacioL" lane="-151615278#1_0" startPos="140" endPos="170" lines="L1,L3"/>
    <busStop id="EducacioR" lane="151615278#1_0" startPos="77" endPos="107" lines="L3,L4"/>
    <busStop id="FGCR" lane="176633586_0" startPos="170" endPos="200" lines="L1,L2,L3"/>
    <busStop id="FGCL" lane="176633587_0" startPos="160" endPos="190" lines="L3,L4"/>
    <busStop id="RectoratVeterinariaL" lane="151589675#0_0" startPos="135" endPos="160" lines="L1,L3,L4"/>
    <busStop id="RectoratVeterinariaR" lane="-151589675#0_0" startPos="161" endPos="186" lines="L1,L3,L4"/>
    <busStop id="PostgrauI" lane="-176633583_0" startPos="158" endPos="174" lines="L3,L5"/>
    <busStop id="PostgrauD" lane="176633583_0" startPos="5" endPos="20" lines="L2,L3"/>
    <busStop id="VilaNordD" lane="151619075#0_0" startPos="99" endPos="129" lines="L2,L3,L5"/>
    <busStop id="VilaSudI" lane="29035379#0_0" startPos="50" endPos="75" lines="L2,L3"/>
    <busStop id="VilaSudD" lane="292517279#1_0" startPos="114" endPos="139" lines="L3,L5"/>
    <busStop id="MedicinaI" lane="151621004_0" startPos="300" endPos="325" lines="L2,L3"/>
    <busStop id="MedicinaD" lane="176633582_0" startPos="215" endPos="240" lines="L3,L5"/>
    <busStop id="EurekaD" lane="151590788_0" startPos="40" endPos="65" lines="L3,L5"/>
    <busStop id="EurekaI" lane="151590797_0" startPos="80" endPos="115" lines="L2,L3,"/>
    <busStop id="ETSEsafI" lane="151591861_0" startPos="280" endPos="310" lines="L4,L5"/>
    <busStop id="ETSEsafD" lane="151591866_0" startPos="70" endPos="95" lines="L1,L2,"/>
    <busStop id="EixCentralI" lane="151591871_0" startPos="0" endPos="20" lines="L4,L5"/>
    <busStop id="EixCentralD" lane="-151591871_0" startPos="130" endPos="150" lines="L1,L2"/>
    <busStop id="RenfeD" lane="-14644#0_0" startPos="0" endPos="35" lines="L1,L2,L4,L5"/>
    <busStop id="RenfeI" lane="-14640_0" startPos="0" endPos="35" lines="L1,L2,L4,L5"/>

    <!-- src: http://file.scirp.org/Html/2-3400325_42694.htm#Table%201 -->
    <!-- Custom accel="0.57" decel="0.77" -->
    <!-- <vType id="BUS" accel="0.98" decel="0.68" sigma="0" length="12" minGap="3" maxSpeed="50" color="1,1,0" guiShape="bus"/> -->
    <vType id="BUS" length="12" maxSpeed="50" color="1,1,0" guiShape="bus">
        <carFollowing-Krauss accel="0.98" decel="0.68" sigma="0.6"/>
    </vType>

    <!-- Line 1 -->
    <vehicle id="L1-B1" type="BUS" depart="0" color="0,0,1">
        <route edges="-14640 -14636 --14646#0 -14648 31980402#3 31980404 192081380 192081383 51450025 51450023 194454265#2 151590794 -292519642 -151590798 151590787 194454306 45048653 -29034631 194454271 194454309 179945549 -151615278#1 -151615278#0 194454270 194454266 151615271 -167262137#1 -167262137#0 194454272 29032727#0 42070614 151589675#0 151589675#1 -14652 -151589675#0 151576233 29032727#2 176633586 194454297#0 194454297#1 194454267 151591858 179948430 151591872 -151591869 -151591868 -151591871 -151591864 151591870 292517285 151591866 179945545 292517280#0 292517280#1 292572681 29034721 194454265#0 31980406 51450024 51450020#0 51450020#1 192081381 192081385 31980402#1 -14650 -14646#0 -14646#1 -14644#0 -14644#1 -14638#0 -14638#1 -14638#2

        -14640 -14636 --14646#0 -14648 31980402#3 31980404 192081380 192081383 51450025 51450023 194454265#2 151590794 -292519642 -151590798 151590787 194454306 45048653 -29034631 194454271 194454309 179945549 -151615278#1 -151615278#0 194454270 194454266 151615271 -167262137#1 -167262137#0 194454272 29032727#0 42070614 151589675#0 151589675#1 -14652 -151589675#0 151576233 29032727#2 176633586 194454297#0 194454297#1 194454267 151591858 179948430 151591872 -151591869 -151591868 -151591871 -151591864 151591870 292517285 151591866 179945545 292517280#0 292517280#1 292572681 29034721 194454265#0 31980406 51450024 51450020#0 51450020#1 192081381 192081385 31980402#1 -14650 -14646#0 -14646#1 -14644#0 -14644#1 -14638#0 -14638#1 -14638#2

        -14640 -14636 --14646#0 -14648 31980402#3 31980404 192081380 192081383 51450025 51450023 194454265#2 151590794 -292519642 -151590798 151590787 194454306 45048653 -29034631 194454271 194454309 179945549 -151615278#1 -151615278#0 194454270 194454266 151615271 -167262137#1 -167262137#0 194454272 29032727#0 42070614 151589675#0 151589675#1 -14652 -151589675#0 151576233 29032727#2 176633586 194454297#0 194454297#1 194454267 151591858 179948430 151591872 -151591869 -151591868 -151591871 -151591864 151591870 292517285 151591866 179945545 292517280#0 292517280#1 292572681 29034721 194454265#0 31980406 51450024 51450020#0 51450020#1 192081381 192081385 31980402#1 -14650 -14646#0 -14646#1 -14644#0 -14644#1 -14638#0 -14638#1 -14638#2

        -14640 -14636 --14646#0 -14648 31980402#3 31980404 192081380 192081383 51450025 51450023 194454265#2 151590794 -292519642 -151590798 151590787 194454306 45048653 -29034631 194454271 194454309 179945549 -151615278#1 -151615278#0 194454270 194454266 151615271 -167262137#1 -167262137#0 194454272 29032727#0 42070614 151589675#0 151589675#1 -14652 -151589675#0 151576233 29032727#2 176633586 194454297#0 194454297#1 194454267 151591858 179948430 151591872 -151591869 -151591868 -151591871 -151591864 151591870 292517285 151591866 179945545 292517280#0 292517280#1 292572681 29034721 194454265#0 31980406 51450024 51450020#0 51450020#1 192081381 192081385 31980402#1 -14650 -14646#0 -14646#1 -14644#0 -14644#1 -14638#0 -14638#1 -14638#2

        -14640 -14636 --14646#0 -14648 31980402#3 31980404 192081380 192081383 51450025 51450023 194454265#2 151590794 -292519642 -151590798 151590787 194454306 45048653 -29034631 194454271 194454309 179945549 -151615278#1 -151615278#0 194454270 194454266 151615271 -167262137#1 -167262137#0 194454272 29032727#0 42070614 151589675#0 151589675#1 -14652 -151589675#0 151576233 29032727#2 176633586 194454297#0 194454297#1 194454267 151591858 179948430 151591872 -151591869 -151591868 -151591871 -151591864 151591870 292517285 151591866 179945545 292517280#0 292517280#1 292572681 29034721 194454265#0 31980406 51450024 51450020#0 51450020#1 192081381 192081385 31980402#1 -14650 -14646#0 -14646#1 -14644#0 -14644#1 -14638#0 -14638#1 -14638#2

        -14640 -14636 --14646#0 -14648 31980402#3 31980404 192081380 192081383 51450025 51450023 194454265#2 151590794 -292519642 -151590798 151590787 194454306 45048653 -29034631 194454271 194454309 179945549 -151615278#1 -151615278#0 194454270 194454266 151615271 -167262137#1 -167262137#0 194454272 29032727#0 42070614 151589675#0 151589675#1 -14652 -151589675#0 151576233 29032727#2 176633586 194454297#0 194454297#1 194454267 151591858 179948430 151591872 -151591869 -151591868 -151591871 -151591864 151591870 292517285 151591866 179945545 292517280#0 292517280#1 292572681 29034721 194454265#0 31980406 51450024 51450020#0 51450020#1 192081381 192081385 31980402#1 -14650 -14646#0 -14646#1 -14644#0 -14644#1 -14638#0 -14638#1 -14638#2

        -14640 -14636 --14646#0 -14648 31980402#3 31980404 192081380 192081383 51450025 51450023 194454265#2 151590794 -292519642 -151590798 151590787 194454306 45048653 -29034631 194454271 194454309 179945549 -151615278#1 -151615278#0 194454270 194454266 151615271 -167262137#1 -167262137#0 194454272 29032727#0 42070614 151589675#0 151589675#1 -14652 -151589675#0 151576233 29032727#2 176633586 194454297#0 194454297#1 194454267 151591858 179948430 151591872 -151591869 -151591868 -151591871 -151591864 151591870 292517285 151591866 179945545 292517280#0 292517280#1 292572681 29034721 194454265#0 31980406 51450024 51450020#0 51450020#1 192081381 192081385 31980402#1 -14650 -14646#0 -14646#1 -14644#0 -14644#1 -14638#0 -14638#1 -14638#2

        -14640 -14636 --14646#0 -14648 31980402#3 31980404 192081380 192081383 51450025 51450023 194454265#2 151590794 -292519642 -151590798 151590787 194454306 45048653 -29034631 194454271 194454309 179945549 -151615278#1 -151615278#0 194454270 194454266 151615271 -167262137#1 -167262137#0 194454272 29032727#0 42070614 151589675#0 151589675#1 -14652 -151589675#0 151576233 29032727#2 176633586 194454297#0 194454297#1 194454267 151591858 179948430 151591872 -151591869 -151591868 -151591871 -151591864 151591870 292517285 151591866 179945545 292517280#0 292517280#1 292572681 29034721 194454265#0 31980406 51450024 51450020#0 51450020#1 192081381 192081385 31980402#1 -14650 -14646#0 -14646#1 -14644#0 -14644#1 -14638#0 -14638#1 -14638#2

        -14640 -14636 --14646#0 -14648 31980402#3 31980404 192081380 192081383 51450025 51450023 194454265#2 151590794 -292519642 -151590798 151590787 194454306 45048653 -29034631 194454271 194454309 179945549 -151615278#1 -151615278#0 194454270 194454266 151615271 -167262137#1 -167262137#0 194454272 29032727#0 42070614 151589675#0 151589675#1 -14652 -151589675#0 151576233 29032727#2 176633586 194454297#0 194454297#1 194454267 151591858 179948430 151591872 -151591869 -151591868 -151591871 -151591864 151591870 292517285 151591866 179945545 292517280#0 292517280#1 292572681 29034721 194454265#0 31980406 51450024 51450020#0 51450020#1 192081381 192081385 31980402#1 -14650 -14646#0 -14646#1 -14644#0 -14644#1 -14638#0 -14638#1 -14638#2

        -14640 -14636 --14646#0 -14648 31980402#3 31980404 192081380 192081383 51450025 51450023 194454265#2 151590794 -292519642 -151590798 151590787 194454306 45048653 -29034631 194454271 194454309 179945549 -151615278#1 -151615278#0 194454270 194454266 151615271 -167262137#1 -167262137#0 194454272 29032727#0 42070614 151589675#0 151589675#1 -14652 -151589675#0 151576233 29032727#2 176633586 194454297#0 194454297#1 194454267 151591858 179948430 151591872 -151591869 -151591868 -151591871 -151591864 151591870 292517285 151591866 179945545 292517280#0 292517280#1 292572681 29034721 194454265#0 31980406 51450024 51450020#0 51450020#1 192081381 192081385 31980402#1 -14650 -14646#0 -14646#1 -14644#0 -14644#1 -14638#0 -14638#1 -14638#2

        -14640 -14636 --14646#0 -14648 31980402#3 31980404 192081380 192081383 51450025 51450023 194454265#2 151590794 -292519642 -151590798 151590787 194454306 45048653 -29034631 194454271 194454309 179945549 -151615278#1 -151615278#0 194454270 194454266 151615271 -167262137#1 -167262137#0 194454272 29032727#0 42070614 151589675#0 151589675#1 -14652 -151589675#0 151576233 29032727#2 176633586 194454297#0 194454297#1 194454267 151591858 179948430 151591872 -151591869 -151591868 -151591871 -151591864 151591870 292517285 151591866 179945545 292517280#0 292517280#1 292572681 29034721 194454265#0 31980406 51450024 51450020#0 51450020#1 192081381 192081385 31980402#1 -14650 -14646#0 -14646#1 -14644#0 -14644#1 -14638#0 -14638#1 -14638#2

        -14640 -14636 --14646#0 -14648 31980402#3 31980404 192081380 192081383 51450025 51450023 194454265#2 151590794 -292519642 -151590798 151590787 194454306 45048653 -29034631 194454271 194454309 179945549 -151615278#1 -151615278#0 194454270 194454266 151615271 -167262137#1 -167262137#0 194454272 29032727#0 42070614 151589675#0 151589675#1 -14652 -151589675#0 151576233 29032727#2 176633586 194454297#0 194454297#1 194454267 151591858 179948430 151591872 -151591869 -151591868 -151591871 -151591864 151591870 292517285 151591866 179945545 292517280#0 292517280#1 292572681 29034721 194454265#0 31980406 51450024 51450020#0 51450020#1 192081381 192081385 31980402#1 -14650 -14646#0 -14646#1 -14644#0 -14644#1 -14638#0 -14638#1 -14638#2

        -14640 -14636 --14646#0 -14648 31980402#3 31980404 192081380 192081383 51450025 51450023 194454265#2 151590794 -292519642 -151590798 151590787 194454306 45048653 -29034631 194454271 194454309 179945549 -151615278#1 -151615278#0 194454270 194454266 151615271 -167262137#1 -167262137#0 194454272 29032727#0 42070614 151589675#0 151589675#1 -14652 -151589675#0 151576233 29032727#2 176633586 194454297#0 194454297#1 194454267 151591858 179948430 151591872 -151591869 -151591868 -151591871 -151591864 151591870 292517285 151591866 179945545 292517280#0 292517280#1 292572681 29034721 194454265#0 31980406 51450024 51450020#0 51450020#1 192081381 192081385 31980402#1 -14650 -14646#0 -14646#1 -14644#0 -14644#1 -14638#0 -14638#1 -14638#2

        -14640 -14636 --14646#0 -14648 31980402#3 31980404 192081380 192081383 51450025 51450023 194454265#2 151590794 -292519642 -151590798 151590787 194454306 45048653 -29034631 194454271 194454309 179945549 -151615278#1 -151615278#0 194454270 194454266 151615271 -167262137#1 -167262137#0 194454272 29032727#0 42070614 151589675#0 151589675#1 -14652 -151589675#0 151576233 29032727#2 176633586 194454297#0 194454297#1 194454267 151591858 179948430 151591872 -151591869 -151591868 -151591871 -151591864 151591870 292517285 151591866 179945545 292517280#0 292517280#1 292572681 29034721 194454265#0 31980406 51450024 51450020#0 51450020#1 192081381 192081385 31980402#1 -14650 -14646#0 -14646#1 -14644#0 -14644#1 -14638#0 -14638#1 -14638#2

        -14640 -14636 --14646#0 -14648 31980402#3 31980404 192081380 192081383 51450025 51450023 194454265#2 151590794 -292519642 -151590798 151590787 194454306 45048653 -29034631 194454271 194454309 179945549 -151615278#1 -151615278#0 194454270 194454266 151615271 -167262137#1 -167262137#0 194454272 29032727#0 42070614 151589675#0 151589675#1 -14652 -151589675#0 151576233 29032727#2 176633586 194454297#0 194454297#1 194454267 151591858 179948430 151591872 -151591869 -151591868 -151591871 -151591864 151591870 292517285 151591866 179945545 292517280#0 292517280#1 292572681 29034721 194454265#0 31980406 51450024 51450020#0 51450020#1 192081381 192081385 31980402#1 -14650 -14646#0 -14646#1 -14644#0 -14644#1 -14638#0 -14638#1 -14638#2

        -14640 -14636 --14646#0 -14648 31980402#3 31980404 192081380 192081383 51450025 51450023 194454265#2 151590794 -292519642 -151590798 151590787 194454306 45048653 -29034631 194454271 194454309 179945549 -151615278#1 -151615278#0 194454270 194454266 151615271 -167262137#1 -167262137#0 194454272 29032727#0 42070614 151589675#0 151589675#1 -14652 -151589675#0 151576233 29032727#2 176633586 194454297#0 194454297#1 194454267 151591858 179948430 151591872 -151591869 -151591868 -151591871 -151591864 151591870 292517285 151591866 179945545 292517280#0 292517280#1 292572681 29034721 194454265#0 31980406 51450024 51450020#0 51450020#1 192081381 192081385 31980402#1 -14650 -14646#0 -14646#1 -14644#0 -14644#1 -14638#0 -14638#1 -14638#2

        -14640 -14636 --14646#0 -14648 31980402#3 31980404 192081380 192081383 51450025 51450023 194454265#2 151590794 -292519642 -151590798 151590787 194454306 45048653 -29034631 194454271 194454309 179945549 -151615278#1 -151615278#0 194454270 194454266 151615271 -167262137#1 -167262137#0 194454272 29032727#0 42070614 151589675#0 151589675#1 -14652 -151589675#0 151576233 29032727#2 176633586 194454297#0 194454297#1 194454267 151591858 179948430 151591872 -151591869 -151591868 -151591871 -151591864 151591870 292517285 151591866 179945545 292517280#0 292517280#1 292572681 29034721 194454265#0 31980406 51450024 51450020#0 51450020#1 192081381 192081385 31980402#1 -14650 -14646#0 -14646#1 -14644#0 -14644#1 -14638#0 -14638#1 -14638#2

        -14640 -14636 --14646#0 -14648 31980402#3 31980404 192081380 192081383 51450025 51450023 194454265#2 151590794 -292519642 -151590798 151590787 194454306 45048653 -29034631 194454271 194454309 179945549 -151615278#1 -151615278#0 194454270 194454266 151615271 -167262137#1 -167262137#0 194454272 29032727#0 42070614 151589675#0 151589675#1 -14652 -151589675#0 151576233 29032727#2 176633586 194454297#0 194454297#1 194454267 151591858 179948430 151591872 -151591869 -151591868 -151591871 -151591864 151591870 292517285 151591866 179945545 292517280#0 292517280#1 292572681 29034721 194454265#0 31980406 51450024 51450020#0 51450020#1 192081381 192081385 31980402#1 -14650 -14646#0 -14646#1 -14644#0 -14644#1 -14638#0 -14638#1 -14638#2

        -14640 -14636 --14646#0 -14648 31980402#3 31980404 192081380 192081383 51450025 51450023 194454265#2 151590794 -292519642 -151590798 151590787 194454306 45048653 -29034631 194454271 194454309 179945549 -151615278#1 -151615278#0 194454270 194454266 151615271 -167262137#1 -167262137#0 194454272 29032727#0 42070614 151589675#0 151589675#1 -14652 -151589675#0 151576233 29032727#2 176633586 194454297#0 194454297#1 194454267 151591858 179948430 151591872 -151591869 -151591868 -151591871 -151591864 151591870 292517285 151591866 179945545 292517280#0 292517280#1 292572681 29034721 194454265#0 31980406 51450024 51450020#0 51450020#1 192081381 192081385 31980402#1 -14650 -14646#0 -14646#1 -14644#0 -14644#1 -14638#0 -14638#1 -14638#2

        -14640 -14636 --14646#0 -14648 31980402#3 31980404 192081380 192081383 51450025 51450023 194454265#2 151590794 -292519642 -151590798 151590787 194454306 45048653 -29034631 194454271 194454309 179945549 -151615278#1 -151615278#0 194454270 194454266 151615271 -167262137#1 -167262137#0 194454272 29032727#0 42070614 151589675#0 151589675#1 -14652 -151589675#0 151576233 29032727#2 176633586 194454297#0 194454297#1 194454267 151591858 179948430 151591872 -151591869 -151591868 -151591871 -151591864 151591870 292517285 151591866 179945545 292517280#0 292517280#1 292572681 29034721 194454265#0 31980406 51450024 51450020#0 51450020#1 192081381 192081385 31980402#1 -14650 -14646#0 -14646#1 -14644#0 -14644#1 -14638#0 -14638#1 -14638#2

        -14640 -14636 --14646#0 -14648 31980402#3 31980404 192081380 192081383 51450025 51450023 194454265#2 151590794 -292519642 -151590798 151590787 194454306 45048653 -29034631 194454271 194454309 179945549 -151615278#1 -151615278#0 194454270 194454266 151615271 -167262137#1 -167262137#0 194454272 29032727#0 42070614 151589675#0 151589675#1 -14652 -151589675#0 151576233 29032727#2 176633586 194454297#0 194454297#1 194454267 151591858 179948430 151591872 -151591869 -151591868 -151591871 -151591864 151591870 292517285 151591866 179945545 292517280#0 292517280#1 292572681 29034721 194454265#0 31980406 51450024 51450020#0 51450020#1 192081381 192081385 31980402#1 -14650 -14646#0 -14646#1 -14644#0 -14644#1 -14638#0 -14638#1 -14638#2

        -14640 -14636 --14646#0 -14648 31980402#3 31980404 192081380 192081383 51450025 51450023 194454265#2 151590794 -292519642 -151590798 151590787 194454306 45048653 -29034631 194454271 194454309 179945549 -151615278#1 -151615278#0 194454270 194454266 151615271 -167262137#1 -167262137#0 194454272 29032727#0 42070614 151589675#0 151589675#1 -14652 -151589675#0 151576233 29032727#2 176633586 194454297#0 194454297#1 194454267 151591858 179948430 151591872 -151591869 -151591868 -151591871 -151591864 151591870 292517285 151591866 179945545 292517280#0 292517280#1 292572681 29034721 194454265#0 31980406 51450024 51450020#0 51450020#1 192081381 192081385 31980402#1 -14650 -14646#0 -14646#1 -14644#0 -14644#1 -14638#0 -14638#1 -14638#2

        -14640 -14636 --14646#0 -14648 31980402#3 31980404 192081380 192081383 51450025 51450023 194454265#2 151590794 -292519642 -151590798 151590787 194454306 45048653 -29034631 194454271 194454309 179945549 -151615278#1 -151615278#0 194454270 194454266 151615271 -167262137#1 -167262137#0 194454272 29032727#0 42070614 151589675#0 151589675#1 -14652 -151589675#0 151576233 29032727#2 176633586 194454297#0 194454297#1 194454267 151591858 179948430 151591872 -151591869 -151591868 -151591871 -151591864 151591870 292517285 151591866 179945545 292517280#0 292517280#1 292572681 29034721 194454265#0 31980406 51450024 51450020#0 51450020#1 192081381 192081385 31980402#1 -14650 -14646#0 -14646#1 -14644#0 -14644#1 -14638#0 -14638#1 -14638#2

        -14640 -14636 --14646#0 -14648 31980402#3 31980404 192081380 192081383 51450025 51450023 194454265#2 151590794 -292519642 -151590798 151590787 194454306 45048653 -29034631 194454271 194454309 179945549 -151615278#1 -151615278#0 194454270 194454266 151615271 -167262137#1 -167262137#0 194454272 29032727#0 42070614 151589675#0 151589675#1 -14652 -151589675#0 151576233 29032727#2 176633586 194454297#0 194454297#1 194454267 151591858 179948430 151591872 -151591869 -151591868 -151591871 -151591864 151591870 292517285 151591866 179945545 292517280#0 292517280#1 292572681 29034721 194454265#0 31980406 51450024 51450020#0 51450020#1 192081381 192081385 31980402#1 -14650 -14646#0 -14646#1 -14644#0 -14644#1 -14638#0 -14638#1 -14638#2

        -14640 -14636 --14646#0 -14648 31980402#3 31980404 192081380 192081383 51450025 51450023 194454265#2 151590794 -292519642 -151590798 151590787 194454306 45048653 -29034631 194454271 194454309 179945549 -151615278#1 -151615278#0 194454270 194454266 151615271 -167262137#1 -167262137#0 194454272 29032727#0 42070614 151589675#0 151589675#1 -14652 -151589675#0 151576233 29032727#2 176633586 194454297#0 194454297#1 194454267 151591858 179948430 151591872 -151591869 -151591868 -151591871 -151591864 151591870 292517285 151591866 179945545 292517280#0 292517280#1 292572681 29034721 194454265#0 31980406 51450024 51450020#0 51450020#1 192081381 192081385 31980402#1 -14650 -14646#0 -14646#1 -14644#0 -14644#1 -14638#0 -14638#1 -14638#2

        -14640 -14636 --14646#0 -14648 31980402#3 31980404 192081380 192081383 51450025 51450023 194454265#2 151590794 -292519642 -151590798 151590787 194454306 45048653 -29034631 194454271 194454309 179945549 -151615278#1 -151615278#0 194454270 194454266 151615271 -167262137#1 -167262137#0 194454272 29032727#0 42070614 151589675#0 151589675#1 -14652 -151589675#0 151576233 29032727#2 176633586 194454297#0 194454297#1 194454267 151591858 179948430 151591872 -151591869 -151591868 -151591871 -151591864 151591870 292517285 151591866 179945545 292517280#0 292517280#1 292572681 29034721 194454265#0 31980406 51450024 51450020#0 51450020#1 192081381 192081385 31980402#1 -14650 -14646#0 -14646#1 -14644#0 -14644#1 -14638#0 -14638#1 -14638#2

        -14640 -14636 --14646#0 -14648 31980402#3 31980404 192081380 192081383 51450025 51450023 194454265#2 151590794 -292519642 -151590798 151590787 194454306 45048653 -29034631 194454271 194454309 179945549 -151615278#1 -151615278#0 194454270 194454266 151615271 -167262137#1 -167262137#0 194454272 29032727#0 42070614 151589675#0 151589675#1 -14652 -151589675#0 151576233 29032727#2 176633586 194454297#0 194454297#1 194454267 151591858 179948430 151591872 -151591869 -151591868 -151591871 -151591864 151591870 292517285 151591866 179945545 292517280#0 292517280#1 292572681 29034721 194454265#0 31980406 51450024 51450020#0 51450020#1 192081381 192081385 31980402#1 -14650 -14646#0 -14646#1 -14644#0 -14644#1 -14638#0 -14638#1 -14638#2

        -14640 -14636 --14646#0 -14648 31980402#3 31980404 192081380 192081383 51450025 51450023 194454265#2 151590794 -292519642 -151590798 151590787 194454306 45048653 -29034631 194454271 194454309 179945549 -151615278#1 -151615278#0 194454270 194454266 151615271 -167262137#1 -167262137#0 194454272 29032727#0 42070614 151589675#0 151589675#1 -14652 -151589675#0 151576233 29032727#2 176633586 194454297#0 194454297#1 194454267 151591858 179948430 151591872 -151591869 -151591868 -151591871 -151591864 151591870 292517285 151591866 179945545 292517280#0 292517280#1 292572681 29034721 194454265#0 31980406 51450024 51450020#0 51450020#1 192081381 192081385 31980402#1 -14650 -14646#0 -14646#1 -14644#0 -14644#1 -14638#0 -14638#1 -14638#2

        -14640 -14636 --14646#0 -14648 31980402#3 31980404 192081380 192081383 51450025 51450023 194454265#2 151590794 -292519642 -151590798 151590787 194454306 45048653 -29034631 194454271 194454309 179945549 -151615278#1 -151615278#0 194454270 194454266 151615271 -167262137#1 -167262137#0 194454272 29032727#0 42070614 151589675#0 151589675#1 -14652 -151589675#0 151576233 29032727#2 176633586 194454297#0 194454297#1 194454267 151591858 179948430 151591872 -151591869 -151591868 -151591871 -151591864 151591870 292517285 151591866 179945545 292517280#0 292517280#1 292572681 29034721 194454265#0 31980406 51450024 51450020#0 51450020#1 192081381 192081385 31980402#1 -14650 -14646#0 -14646#1 -14644#0 -14644#1 -14638#0 -14638#1 -14638#2

        -14640 -14636 --14646#0 -14648 31980402#3 31980404 192081380 192081383 51450025 51450023 194454265#2 151590794 -292519642 -151590798 151590787 194454306 45048653 -29034631 194454271 194454309 179945549 -151615278#1 -151615278#0 194454270 194454266 151615271 -167262137#1 -167262137#0 194454272 29032727#0 42070614 151589675#0 151589675#1 -14652 -151589675#0 151576233 29032727#2 176633586 194454297#0 194454297#1 194454267 151591858 179948430 151591872 -151591869 -151591868 -151591871 -151591864 151591870 292517285 151591866 179945545 292517280#0 292517280#1 292572681 29034721 194454265#0 31980406 51450024 51450020#0 51450020#1 192081381 192081385 31980402#1 -14650 -14646#0 -14646#1 -14644#0 -14644#1 -14638#0 -14638#1 -14638#2

        -14640 -14636 --14646#0 -14648 31980402#3 31980404 192081380 192081383 51450025 51450023 194454265#2 151590794 -292519642 -151590798 151590787 194454306 45048653 -29034631 194454271 194454309 179945549 -151615278#1 -151615278#0 194454270 194454266 151615271 -167262137#1 -167262137#0 194454272 29032727#0 42070614 151589675#0 151589675#1 -14652 -151589675#0 151576233 29032727#2 176633586 194454297#0 194454297#1 194454267 151591858 179948430 151591872 -151591869 -151591868 -151591871 -151591864 151591870 292517285 151591866 179945545 292517280#0 292517280#1 292572681 29034721 194454265#0 31980406 51450024 51450020#0 51450020#1 192081381 192081385 31980402#1 -14650 -14646#0 -14646#1 -14644#0 -14644#1 -14638#0 -14638#1 -14638#2

        -14640 -14636 --14646#0 -14648 31980402#3 31980404 192081380 192081383 51450025 51450023 194454265#2 151590794 -292519642 -151590798 151590787 194454306 45048653 -29034631 194454271 194454309 179945549 -151615278#1 -151615278#0 194454270 194454266 151615271 -167262137#1 -167262137#0 194454272 29032727#0 42070614 151589675#0 151589675#1 -14652 -151589675#0 151576233 29032727#2 176633586 194454297#0 194454297#1 194454267 151591858 179948430 151591872 -151591869 -151591868 -151591871 -151591864 151591870 292517285 151591866 179945545 292517280#0 292517280#1 292572681 29034721 194454265#0 31980406 51450024 51450020#0 51450020#1 192081381 192081385 31980402#1 -14650 -14646#0 -14646#1 -14644#0 -14644#1 -14638#0 -14638#1 -14638#2

        -14640 -14636 --14646#0 -14648 31980402#3 31980404 192081380 192081383 51450025 51450023 194454265#2 151590794 -292519642 -151590798 151590787 194454306 45048653 -29034631 194454271 194454309 179945549 -151615278#1 -151615278#0 194454270 194454266 151615271 -167262137#1 -167262137#0 194454272 29032727#0 42070614 151589675#0 151589675#1 -14652 -151589675#0 151576233 29032727#2 176633586 194454297#0 194454297#1 194454267 151591858 179948430 151591872 -151591869 -151591868 -151591871 -151591864 151591870 292517285 151591866 179945545 292517280#0 292517280#1 292572681 29034721 194454265#0 31980406 51450024 51450020#0 51450020#1 192081381 192081385 31980402#1 -14650 -14646#0 -14646#1 -14644#0 -14644#1 -14638#0 -14638#1 -14638#2

        -14640 -14636 --14646#0 -14648 31980402#3 31980404 192081380 192081383 51450025 51450023 194454265#2 151590794 -292519642 -151590798 151590787 194454306 45048653 -29034631 194454271 194454309 179945549 -151615278#1 -151615278#0 194454270 194454266 151615271 -167262137#1 -167262137#0 194454272 29032727#0 42070614 151589675#0 151589675#1 -14652 -151589675#0 151576233 29032727#2 176633586 194454297#0 194454297#1 194454267 151591858 179948430 151591872 -151591869 -151591868 -151591871 -151591864 151591870 292517285 151591866 179945545 292517280#0 292517280#1 292572681 29034721 194454265#0 31980406 51450024 51450020#0 51450020#1 192081381 192081385 31980402#1 -14650 -14646#0 -14646#1 -14644#0 -14644#1 -14638#0 -14638#1 -14638#2

        -14640 -14636 --14646#0 -14648 31980402#3 31980404 192081380 192081383 51450025 51450023 194454265#2 151590794 -292519642 -151590798 151590787 194454306 45048653 -29034631 194454271 194454309 179945549 -151615278#1 -151615278#0 194454270 194454266 151615271 -167262137#1 -167262137#0 194454272 29032727#0 42070614 151589675#0 151589675#1 -14652 -151589675#0 151576233 29032727#2 176633586 194454297#0 194454297#1 194454267 151591858 179948430 151591872 -151591869 -151591868 -151591871 -151591864 151591870 292517285 151591866 179945545 292517280#0 292517280#1 292572681 29034721 194454265#0 31980406 51450024 51450020#0 51450020#1 192081381 192081385 31980402#1 -14650 -14646#0 -14646#1 -14644#0 -14644#1 -14638#0 -14638#1 -14638#2

        -14640 -14636 --14646#0 -14648 31980402#3 31980404 192081380 192081383 51450025 51450023 194454265#2 151590794 -292519642 -151590798 151590787 194454306 45048653 -29034631 194454271 194454309 179945549 -151615278#1 -151615278#0 194454270 194454266 151615271 -167262137#1 -167262137#0 194454272 29032727#0 42070614 151589675#0 151589675#1 -14652 -151589675#0 151576233 29032727#2 176633586 194454297#0 194454297#1 194454267 151591858 179948430 151591872 -151591869 -151591868 -151591871 -151591864 151591870 292517285 151591866 179945545 292517280#0 292517280#1 292572681 29034721 194454265#0 31980406 51450024 51450020#0 51450020#1 192081381 192081385 31980402#1 -14650 -14646#0 -14646#1 -14644#0 -14644#1 -14638#0 -14638#1 -14638#2
