<?xml version="1.0" encoding="UTF-8"?>

<!-- generated on Fri Feb 20 11:28:56 2015 by SUMO netconvert Version 0.22.0
<?xml version="1.0" encoding="UTF-8"?>

<configuration xmlns:xsi="http://www.w3.org/2001/XMLSchema-instance" xsi:noNamespaceSchemaLocation="http://sumo.dlr.de/xsd/netconvertConfiguration.xsd">

    <input>
        <osm-files value="uab-purge.osm"/>
    </input>

    <output>
        <output-file value="uab-purged.net.xml"/>
        <output.street-names value="true"/>
        <output.original-names value="true"/>
    </output>

    <projection>
        <proj.utm value="true"/>
    </projection>

</configuration>
-->

<net version="0.13" xmlns:xsi="http://www.w3.org/2001/XMLSchema-instance" xsi:noNamespaceSchemaLocation="http://sumo.dlr.de/xsd/net_file.xsd">

    <location netOffset="-424463.91,-4593794.43" convBoundary="0.00,0.00,1894.22,1730.81" origBoundary="2.094982,41.492322,2.117698,41.507855" projParameter="+proj=utm +zone=31 +ellps=WGS84 +datum=WGS84 +units=m +no_defs"/>

    <edge id=":-10_0" function="internal">
        <lane id=":-10_0_0" index="0" allow="delivery" speed="5.56" length="1.19" shape="1700.43,460.12 1699.41,460.74"/>
    </edge>
    <edge id=":-10_1" function="internal">
        <lane id=":-10_1_0" index="0" allow="delivery" speed="5.56" length="2.41" shape="1700.43,460.12 1699.06,459.52 1698.52,458.78"/>
    </edge>
    <edge id=":-10_4" function="internal">
        <lane id=":-10_4_0" index="0" speed="5.56" length="2.41" shape="1698.52,458.78 1698.78,457.89 1699.86,456.87"/>
    </edge>
    <edge id=":-10_2" function="internal">
        <lane id=":-10_2_0" index="0" allow="delivery" speed="5.56" length="3.64" shape="1696.76,458.78 1699.86,456.87"/>
    </edge>
    <edge id=":-10_3" function="internal">
        <lane id=":-10_3_0" index="0" allow="delivery" speed="5.56" length="2.41" shape="1696.76,458.78 1698.16,458.28 1699.07,458.44"/>
    </edge>
    <edge id=":-10_5" function="internal">
        <lane id=":-10_5_0" index="0" speed="5.56" length="2.41" shape="1699.07,458.44 1699.49,459.26 1699.41,460.74"/>
    </edge>
    <edge id=":-24_0" function="internal">
        <lane id=":-24_0_0" index="0" allow="delivery" speed="5.56" length="8.49" shape="1725.25,533.88 1720.67,526.73"/>
    </edge>
    <edge id=":-24_1" function="internal">
        <lane id=":-24_1_0" index="0" allow="delivery" speed="5.56" length="9.84" shape="1725.25,533.88 1724.50,531.50 1724.64,529.26 1725.68,527.16 1727.62,525.20"/>
    </edge>
    <edge id=":-24_2" function="internal">
        <lane id=":-24_2_0" index="0" allow="delivery" speed="5.56" length="4.82" shape="1725.25,533.88 1725.45,532.40 1726.01,531.67 1726.93,531.67 1728.21,532.42"/>
    </edge>
    <edge id=":-24_3" function="internal">
        <lane id=":-24_3_0" index="0" allow="delivery" speed="5.56" length="5.30" shape="1729.66,527.79 1728.57,528.88 1727.96,530.01 1727.84,531.19 1728.21,532.42"/>
    </edge>
    <edge id=":-24_4" function="internal">
        <lane id=":-24_4_0" index="0" allow="delivery" speed="5.56" length="10.33" shape="1729.66,527.79 1727.22,529.21 1724.90,529.51 1722.72,528.68 1720.67,526.73"/>
    </edge>
    <edge id=":-24_5" function="internal">
        <lane id=":-24_5_0" index="0" allow="delivery" speed="5.56" length="4.82" shape="1729.66,527.79 1728.18,527.91 1727.35,527.52 1727.16,526.62 1727.62,525.20"/>
    </edge>
    <edge id=":-24_6" function="internal">
        <lane id=":-24_6_0" index="0" allow="delivery" speed="5.56" length="5.00" shape="1723.26,524.69 1724.26,525.63 1725.31,526.03 1726.43,525.89 1727.62,525.20"/>
    </edge>
    <edge id=":-24_7" function="internal">
        <lane id=":-24_7_0" index="0" allow="delivery" speed="5.56" length="9.18" shape="1723.26,524.69 1728.21,532.42"/>
    </edge>
    <edge id=":-24_8" function="internal">
        <lane id=":-24_8_0" index="0" allow="delivery" speed="5.56" length="4.82" shape="1723.26,524.69 1723.38,526.17 1722.99,527.00 1722.09,527.19 1720.67,526.73"/>
    </edge>
    <edge id=":-26_0" function="internal">
        <lane id=":-26_0_0" index="0" allow="delivery" speed="5.56" length="9.50" shape="1748.45,572.30 1742.54,564.87"/>
    </edge>
    <edge id=":-26_1" function="internal">
        <lane id=":-26_1_0" index="0" allow="delivery" speed="5.56" length="10.34" shape="1748.45,572.30 1747.02,569.86 1746.71,567.54 1747.54,565.36 1749.49,563.30"/>
    </edge>
    <edge id=":-26_2" function="internal">
        <lane id=":-26_2_0" index="0" allow="delivery" speed="5.56" length="4.82" shape="1748.45,572.30 1748.33,570.82 1748.72,569.98 1749.62,569.79 1751.03,570.25"/>
    </edge>
    <edge id=":-26_3" function="internal">
        <lane id=":-26_3_0" index="0" allow="delivery" speed="5.56" length="5.00" shape="1751.54,565.89 1750.59,566.89 1750.19,567.94 1750.34,569.06 1751.03,570.25"/>
    </edge>
    <edge id=":-26_4" function="internal">
        <lane id=":-26_4_0" index="0" allow="delivery" speed="5.56" length="10.32" shape="1751.54,565.89 1749.09,567.32 1746.77,567.62 1744.59,566.81 1742.54,564.87"/>
    </edge>
    <edge id=":-26_5" function="internal">
        <lane id=":-26_5_0" index="0" allow="delivery" speed="5.56" length="4.82" shape="1751.54,565.89 1750.06,566.01 1749.22,565.62 1749.03,564.72 1749.49,563.30"/>
    </edge>
    <edge id=":-26_6" function="internal">
        <lane id=":-26_6_0" index="0" allow="delivery" speed="5.56" length="5.02" shape="1745.12,562.82 1746.11,563.76 1747.18,564.15 1748.30,564.00 1749.49,563.30"/>
    </edge>
    <edge id=":-26_7" function="internal">
        <lane id=":-26_7_0" index="0" allow="delivery" speed="5.56" length="9.50" shape="1745.12,562.82 1751.03,570.25"/>
    </edge>
    <edge id=":-26_8" function="internal">
        <lane id=":-26_8_0" index="0" allow="delivery" speed="5.56" length="4.82" shape="1745.12,562.82 1745.24,564.30 1744.86,565.14 1743.95,565.33 1742.54,564.87"/>
    </edge>
    <edge id=":-32_0" function="internal">
        <lane id=":-32_0_0" index="0" allow="delivery" speed="5.56" length="5.01" shape="1758.44,564.42 1757.44,563.47 1756.38,563.07 1755.25,563.21 1754.07,563.89"/>
    </edge>
    <edge id=":-32_1" function="internal">
        <lane id=":-32_1_0" index="0" allow="delivery" speed="5.56" length="10.34" shape="1758.44,564.42 1757.01,561.97 1756.70,559.66 1757.52,557.47 1759.48,555.42"/>
    </edge>
    <edge id=":-32_2" function="internal">
        <lane id=":-32_2_0" index="0" allow="delivery" speed="5.56" length="4.82" shape="1758.44,564.42 1758.31,562.93 1758.70,562.10 1759.60,561.91 1761.02,562.36"/>
    </edge>
    <edge id=":-32_3" function="internal">
        <lane id=":-32_3_0" index="0" allow="delivery" speed="5.56" length="5.00" shape="1761.52,558.01 1760.58,559.00 1760.18,560.06 1760.33,561.18 1761.02,562.36"/>
    </edge>
    <edge id=":-32_4" function="internal">
        <lane id=":-32_4_0" index="0" allow="delivery" speed="5.56" length="9.50" shape="1761.52,558.01 1754.07,563.89"/>
    </edge>
    <edge id=":-32_5" function="internal">
        <lane id=":-32_5_0" index="0" allow="delivery" speed="5.56" length="4.82" shape="1761.52,558.01 1760.04,558.13 1759.20,557.73 1759.02,556.83 1759.48,555.42"/>
    </edge>
    <edge id=":-32_6" function="internal">
        <lane id=":-32_6_0" index="0" allow="delivery" speed="5.56" length="9.50" shape="1752.02,561.30 1759.48,555.42"/>
    </edge>
    <edge id=":-32_7" function="internal">
        <lane id=":-32_7_0" index="0" allow="delivery" speed="5.56" length="10.32" shape="1752.02,561.30 1754.46,559.89 1756.78,559.59 1758.96,560.42 1761.02,562.36"/>
    </edge>
    <edge id=":-32_8" function="internal">
        <lane id=":-32_8_0" index="0" allow="delivery" speed="5.56" length="4.82" shape="1752.02,561.30 1753.51,561.19 1754.34,561.58 1754.53,562.48 1754.07,563.89"/>
    </edge>
    <edge id=":-36_0" function="internal">
        <lane id=":-36_0_0" index="0" allow="delivery" speed="5.56" length="5.01" shape="1743.61,520.71 1742.62,519.78 1741.55,519.38 1740.43,519.53 1739.24,520.23"/>
    </edge>
    <edge id=":-36_1" function="internal">
        <lane id=":-36_1_0" index="0" allow="delivery" speed="5.56" length="9.50" shape="1743.61,520.71 1737.69,513.28"/>
    </edge>
    <edge id=":-36_2" function="internal">
        <lane id=":-36_2_0" index="0" allow="delivery" speed="5.56" length="4.82" shape="1743.61,520.71 1743.49,519.23 1743.88,518.40 1744.78,518.21 1746.19,518.66"/>
    </edge>
    <edge id=":-36_3" function="internal">
        <lane id=":-36_3_0" index="0" allow="delivery" speed="5.56" length="9.50" shape="1740.28,511.23 1746.19,518.66"/>
    </edge>
    <edge id=":-36_4" function="internal">
        <lane id=":-36_4_0" index="0" allow="delivery" speed="5.56" length="10.34" shape="1740.28,511.23 1741.71,513.67 1742.02,515.99 1741.19,518.17 1739.24,520.23"/>
    </edge>
    <edge id=":-36_5" function="internal">
        <lane id=":-36_5_0" index="0" allow="delivery" speed="5.56" length="4.82" shape="1740.28,511.23 1740.40,512.71 1740.01,513.55 1739.11,513.74 1737.69,513.28"/>
    </edge>
    <edge id=":-36_6" function="internal">
        <lane id=":-36_6_0" index="0" allow="delivery" speed="5.56" length="5.00" shape="1737.19,517.64 1738.14,516.64 1738.54,515.59 1738.39,514.47 1737.69,513.28"/>
    </edge>
    <edge id=":-36_7" function="internal">
        <lane id=":-36_7_0" index="0" allow="delivery" speed="5.56" length="10.32" shape="1737.19,517.64 1739.64,516.21 1741.96,515.91 1744.14,516.72 1746.19,518.66"/>
    </edge>
    <edge id=":-36_8" function="internal">
        <lane id=":-36_8_0" index="0" allow="delivery" speed="5.56" length="4.82" shape="1737.19,517.64 1738.67,517.52 1739.51,517.91 1739.70,518.81 1739.24,520.23"/>
    </edge>
    <edge id=":-38_0" function="internal">
        <lane id=":-38_0_0" index="0" allow="delivery" speed="5.56" length="0.98" shape="1715.76,485.73 1715.23,484.90"/>
    </edge>
    <edge id=":-38_1" function="internal">
        <lane id=":-38_1_0" index="0" allow="delivery" speed="5.56" length="2.41" shape="1715.76,485.73 1715.63,484.25 1716.02,483.41"/>
    </edge>
    <edge id=":-38_4" function="internal">
        <lane id=":-38_4_0" index="0" speed="5.56" length="2.41" shape="1716.02,483.41 1716.92,483.22 1718.34,483.68"/>
    </edge>
    <edge id=":-38_2" function="internal">
        <lane id=":-38_2_0" index="0" allow="delivery" speed="5.56" length="0.32" shape="1718.17,483.41 1718.34,483.68"/>
    </edge>
    <edge id=":-38_3" function="internal">
        <lane id=":-38_3_0" index="0" allow="delivery" speed="5.56" length="2.41" shape="1718.17,483.41 1717.99,484.88 1717.44,485.63"/>
    </edge>
    <edge id=":-38_5" function="internal">
        <lane id=":-38_5_0" index="0" speed="5.56" length="2.41" shape="1717.44,485.63 1716.52,485.63 1715.23,484.90"/>
    </edge>
    <edge id=":-46_0" function="internal">
        <lane id=":-46_0_0" index="0" allow="delivery" speed="5.56" length="9.78" shape="1713.54,457.08 1710.76,458.68 1709.03,460.44 1708.34,462.34 1708.70,464.40"/>
    </edge>
    <edge id=":-46_1" function="internal">
        <lane id=":-46_1_0" index="0" allow="delivery" speed="5.56" length="11.02" shape="1713.54,457.08 1710.65,458.25 1708.36,458.85 1705.99,459.21 1702.89,459.69"/>
    </edge>
    <edge id=":-46_2" function="internal">
        <lane id=":-46_2_0" index="0" allow="delivery" speed="5.56" length="4.82" shape="1713.54,457.08 1712.07,456.85 1711.35,456.28 1711.38,455.35 1712.16,454.09"/>
    </edge>
    <edge id=":-46_3" function="internal">
        <lane id=":-46_3_0" index="0" allow="delivery" speed="5.56" length="10.17" shape="1702.32,456.44 1705.30,456.00 1707.38,455.73 1709.40,455.22 1712.16,454.09"/>
    </edge>
    <edge id=":-46_4" function="internal">
        <lane id=":-46_4_0" index="0" allow="delivery" speed="5.56" length="10.71" shape="1702.32,456.44 1703.80,456.74 1705.36,458.17 1706.99,460.72 1708.70,464.40"/>
    </edge>
    <edge id=":-46_5" function="internal">
        <lane id=":-46_5_0" index="0" allow="delivery" speed="5.56" length="4.82" shape="1702.32,456.44 1703.68,457.04 1704.23,457.78 1703.97,458.66 1702.89,459.69"/>
    </edge>
    <edge id=":-46_6" function="internal">
        <lane id=":-46_6_0" index="0" allow="delivery" speed="5.56" length="6.07" shape="1705.44,462.98 1706.05,461.24 1705.83,460.11 1704.78,459.59 1702.89,459.69"/>
    </edge>
    <edge id=":-46_7" function="internal">
        <lane id=":-46_7_0" index="0" allow="delivery" speed="5.56" length="11.49" shape="1705.44,462.98 1706.80,460.00 1707.94,457.65 1709.51,455.73 1712.16,454.09"/>
    </edge>
    <edge id=":-46_8" function="internal">
        <lane id=":-46_8_0" index="0" allow="delivery" speed="5.56" length="5.19" shape="1705.44,462.98 1706.78,462.11 1707.78,462.06 1708.42,462.82 1708.70,464.40"/>
    </edge>
    <edge id=":-54_0" function="internal">
        <lane id=":-54_0_0" index="0" speed="13.89" length="7.36" shape="1859.08,594.72 1865.27,598.71"/>
    </edge>
    <edge id=":-54_1" function="internal">
        <lane id=":-54_1_0" index="0" speed="22.22" length="7.36" shape="1857.91,598.61 1865.27,598.71"/>
    </edge>
    <edge id=":-58_0" function="internal">
        <lane id=":-58_0_0" index="0" allow="delivery" speed="5.56" length="4.74" shape="1829.03,569.40 1827.57,564.89"/>
    </edge>
    <edge id=":-58_1" function="internal">
        <lane id=":-58_1_0" index="0" allow="delivery" speed="5.56" length="10.80" shape="1829.03,569.40 1828.04,565.68 1828.24,564.15 1829.65,564.79 1832.26,567.62"/>
    </edge>
    <edge id=":-58_2" function="internal">
        <lane id=":-58_2_0" index="0" allow="delivery" speed="5.56" length="5.12" shape="1830.23,562.92 1832.26,567.62"/>
    </edge>
    <edge id=":-58_3" function="internal">
        <lane id=":-58_3_0" index="0" allow="delivery" speed="5.56" length="4.82" shape="1830.23,562.92 1830.30,564.41 1829.88,565.23 1828.97,565.39 1827.57,564.89"/>
    </edge>
    <edge id=":-62_0" function="internal">
        <lane id=":-62_0_0" index="0" allow="delivery" speed="13.89" length="5.07" shape="1834.27,614.52 1834.24,609.45"/>
    </edge>
    <edge id=":-62_1" function="internal">
        <lane id=":-62_1_0" index="0" speed="22.22" length="5.23" shape="1834.27,614.52 1837.85,610.71"/>
    </edge>
    <edge id=":-66_0" function="internal">
        <lane id=":-66_0_0" index="0" allow="delivery" speed="13.89" length="9.03" shape="197.01,1162.74 194.94,1162.50 193.74,1161.31 193.40,1159.19 193.93,1156.13"/>
    </edge>
    <edge id=":-66_1" function="internal">
        <lane id=":-66_1_0" index="0" speed="22.22" length="4.82" shape="197.01,1162.74 195.71,1162.03 195.22,1161.25 195.56,1160.39 196.72,1159.45"/>
    </edge>
    <edge id=":-8_0" function="internal">
        <lane id=":-8_0_0" index="0" speed="13.89" length="4.92" shape="1740.20,561.94 1739.23,561.02 1738.19,560.61 1737.07,560.70 1735.87,561.29"/>
    </edge>
    <edge id=":-8_1" function="internal">
        <lane id=":-8_1_0" index="0" allow="delivery" speed="5.56" length="9.14" shape="1740.20,561.94 1735.28,554.23"/>
    </edge>
    <edge id=":-8_2" function="internal">
        <lane id=":-8_2_0" index="0" allow="delivery" speed="5.56" length="4.82" shape="1740.20,561.94 1740.07,560.46 1740.46,559.62 1741.36,559.43 1742.78,559.88"/>
    </edge>
    <edge id=":-8_3" function="internal">
        <lane id=":-8_3_0" index="0" allow="delivery" speed="5.56" length="8.43" shape="1738.24,552.77 1742.78,559.88"/>
    </edge>
    <edge id=":-8_4" function="internal">
        <lane id=":-8_4_0" index="0" speed="13.89" length="9.80" shape="1738.24,552.77 1739.05,555.24 1738.92,557.48 1737.86,559.50 1735.87,561.29"/>
    </edge>
    <edge id=":-8_5" function="internal">
        <lane id=":-8_5_0" index="0" allow="delivery" speed="5.56" length="4.82" shape="1738.24,552.77 1738.05,554.25 1737.49,554.98 1736.57,554.98 1735.28,554.23"/>
    </edge>
    <edge id=":-8_6" function="internal">
        <lane id=":-8_6_0" index="0" allow="delivery" speed="13.89" length="5.01" shape="1734.00,558.57 1735.04,557.65 1735.60,556.61 1735.68,555.47 1735.28,554.23"/>
    </edge>
    <edge id=":-8_7" function="internal">
        <lane id=":-8_7_0" index="0" allow="delivery" speed="13.89" length="9.97" shape="1734.00,558.57 1736.43,557.37 1738.70,557.19 1740.81,558.02 1742.78,559.88"/>
    </edge>
    <edge id=":-8_8" function="internal">
        <lane id=":-8_8_0" index="0" speed="22.22" length="4.82" shape="1734.00,558.57 1735.49,558.55 1736.30,559.00 1736.42,559.91 1735.87,561.29"/>
    </edge>
    <edge id=":-84_0" function="internal">
        <lane id=":-84_0_0" index="0" speed="22.22" length="6.20" shape="240.04,1168.91 233.91,1167.96"/>
    </edge>
    <edge id=":-84_1" function="internal">
        <lane id=":-84_1_0" index="0" speed="22.22" length="2.41" shape="240.04,1168.91 238.94,1167.91 238.66,1167.03"/>
    </edge>
    <edge id=":-84_6" function="internal">
        <lane id=":-84_6_0" index="0" speed="22.22" length="2.41" shape="238.66,1167.03 239.19,1166.27 240.54,1165.65"/>
    </edge>
    <edge id=":-84_2" function="internal">
        <lane id=":-84_2_0" index="0" speed="13.89" length="5.04" shape="237.92,1162.06 237.93,1163.46 238.38,1164.52 239.24,1165.25 240.54,1165.65"/>
    </edge>
    <edge id=":-84_3" function="internal">
        <lane id=":-84_3_0" index="0" speed="13.89" length="7.92" shape="237.92,1162.06 237.36,1164.83 236.51,1166.74 235.36,1167.78 233.91,1167.96"/>
    </edge>
    <edge id=":-84_4" function="internal">
        <lane id=":-84_4_0" index="0" speed="22.22" length="6.20" shape="234.41,1164.70 240.54,1165.65"/>
    </edge>
    <edge id=":-84_5" function="internal">
        <lane id=":-84_5_0" index="0" speed="22.22" length="2.41" shape="234.41,1164.70 235.51,1165.71 235.79,1166.59"/>
    </edge>
    <edge id=":-84_7" function="internal">
        <lane id=":-84_7_0" index="0" speed="22.22" length="2.41" shape="235.79,1166.59 235.26,1167.34 233.91,1167.96"/>
    </edge>
    <edge id=":1274743548_0" function="internal">
        <lane id=":1274743548_0_0" index="0" speed="18.06" length="5.95" shape="1042.01,557.03 1040.20,562.70"/>
    </edge>
    <edge id=":1274743548_1" function="internal">
        <lane id=":1274743548_1_0" index="0" speed="13.89" length="6.15" shape="1037.80,557.04 1040.20,562.70"/>
    </edge>
    <edge id=":1274756617_0" function="internal">
        <lane id=":1274756617_0_0" index="0" speed="8.33" length="5.03" shape="434.13,961.85 433.04,961.22 431.90,961.05 430.73,961.33 429.52,962.06"/>
    </edge>
    <edge id=":1274756617_1" function="internal">
        <lane id=":1274756617_1_0" index="0" speed="8.33" length="8.90" shape="434.13,961.85 428.27,955.16"/>
    </edge>
    <edge id=":1274756617_2" function="internal">
        <lane id=":1274756617_2_0" index="0" speed="8.33" length="2.41" shape="434.13,961.85 433.67,960.44 433.86,959.53"/>
    </edge>
    <edge id=":1274756617_9" function="internal">
        <lane id=":1274756617_9_0" index="0" speed="8.33" length="2.41" shape="433.86,959.53 434.70,959.14 436.18,959.26"/>
    </edge>
    <edge id=":1274756617_3" function="internal">
        <lane id=":1274756617_3_0" index="0" speed="8.33" length="7.74" shape="431.08,953.43 436.18,959.26"/>
    </edge>
    <edge id=":1274756617_4" function="internal">
        <lane id=":1274756617_4_0" index="0" speed="8.33" length="6.04" shape="431.08,953.43 432.14,955.85 432.23,958.09 431.78,959.16"/>
    </edge>
    <edge id=":1274756617_5" function="internal">
        <lane id=":1274756617_5_0" index="0" speed="8.33" length="2.41" shape="431.08,953.43 431.03,954.92 430.54,955.70"/>
    </edge>
    <edge id=":1274756617_10" function="internal">
        <lane id=":1274756617_10_0" index="0" speed="8.33" length="3.72" shape="431.78,959.16 431.36,960.16 429.52,962.06"/>
    </edge>
    <edge id=":1274756617_11" function="internal">
        <lane id=":1274756617_11_0" index="0" speed="8.33" length="2.41" shape="430.54,955.70 429.62,955.78 428.27,955.16"/>
    </edge>
    <edge id=":1274756617_6" function="internal">
        <lane id=":1274756617_6_0" index="0" speed="8.33" length="4.87" shape="427.49,959.46 428.41,958.51 428.84,957.48 428.79,956.36 428.27,955.16"/>
    </edge>
    <edge id=":1274756617_7" function="internal">
        <lane id=":1274756617_7_0" index="0" speed="8.33" length="9.47" shape="427.49,959.46 429.72,958.13 431.91,957.65 434.06,958.03 436.18,959.26"/>
    </edge>
    <edge id=":1274756617_8" function="internal">
        <lane id=":1274756617_8_0" index="0" speed="8.33" length="4.82" shape="427.49,959.46 428.97,959.34 429.81,959.74 429.99,960.64 429.52,962.06"/>
    </edge>
    <edge id=":1274756636_0" function="internal">
        <lane id=":1274756636_0_0" index="0" speed="8.33" length="10.44" shape="296.53,954.57 293.57,955.29 291.46,955.84 289.35,956.40 286.42,957.19"/>
    </edge>
    <edge id=":1274756636_1" function="internal">
        <lane id=":1274756636_1_0" index="0" speed="11.11" length="11.31" shape="296.53,954.57 293.55,954.69 291.40,953.64 289.32,951.98 286.51,950.28"/>
    </edge>
    <edge id=":1274756636_2" function="internal">
        <lane id=":1274756636_2_0" index="0" speed="8.33" length="4.82" shape="296.53,954.57 295.13,954.06 294.53,953.36 294.74,952.46 295.75,951.36"/>
    </edge>
    <edge id=":1274756636_3" function="internal">
        <lane id=":1274756636_3_0" index="0" speed="11.11" length="7.48" shape="289.15,947.85 295.75,951.36"/>
    </edge>
    <edge id=":1274756636_4" function="internal">
        <lane id=":1274756636_4_0" index="0" speed="11.11" length="16.96" shape="289.15,947.85 293.47,950.46 294.45,952.89 292.10,955.13 286.42,957.19"/>
    </edge>
    <edge id=":1274756636_5" function="internal">
        <lane id=":1274756636_5_0" index="0" speed="13.89" length="5.24" shape="289.15,947.85 289.40,949.44 289.05,950.38 288.08,950.66 286.51,950.28"/>
    </edge>
    <edge id=":1274756636_6" function="internal">
        <lane id=":1274756636_6_0" index="0" speed="11.11" length="6.74" shape="285.56,954.00 287.79,953.19 288.69,952.30 288.26,951.33 286.51,950.28"/>
    </edge>
    <edge id=":1274756636_7" function="internal">
        <lane id=":1274756636_7_0" index="0" speed="8.33" length="10.52" shape="285.56,954.00 288.51,953.21 290.65,952.64 292.79,952.09 295.75,951.36"/>
    </edge>
    <edge id=":1274756636_8" function="internal">
        <lane id=":1274756636_8_0" index="0" speed="8.33" length="4.82" shape="285.56,954.00 286.97,954.48 287.59,955.17 287.40,956.07 286.42,957.19"/>
    </edge>
    <edge id=":1644022036_0" function="internal">
        <lane id=":1644022036_0_0" index="0" speed="15.28" length="5.72" shape="479.59,1438.02 478.08,1438.95 476.93,1439.93 476.14,1440.95 475.70,1442.00"/>
    </edge>
    <edge id=":1644022036_1" function="internal">
        <lane id=":1644022036_1_0" index="0" speed="22.22" length="5.97" shape="475.74,1436.03 475.70,1442.00"/>
    </edge>
    <edge id=":1644022066_0" function="internal">
        <lane id=":1644022066_0_0" index="0" speed="22.22" length="5.06" shape="446.69,1420.00 449.17,1415.59"/>
    </edge>
    <edge id=":1644022066_1" function="internal">
        <lane id=":1644022066_1_0" index="0" speed="22.22" length="5.07" shape="446.69,1420.00 451.61,1418.80"/>
    </edge>
    <edge id=":1644022090_0" function="internal">
        <lane id=":1644022090_0_0" index="0" speed="22.22" length="6.31" shape="461.35,1415.15 464.72,1420.49"/>
    </edge>
    <edge id=":1644022090_1" function="internal">
        <lane id=":1644022090_1_0" index="0" speed="22.22" length="6.63" shape="458.37,1418.60 464.72,1420.49"/>
    </edge>
    <edge id=":1644022092_0" function="internal">
        <lane id=":1644022092_0_0" index="0" speed="15.28" length="5.85" shape="470.90,1425.22 471.84,1425.91 473.08,1426.34 474.62,1426.49 476.44,1426.38"/>
    </edge>
    <edge id=":1644022092_1" function="internal">
        <lane id=":1644022092_1_0" index="0" speed="22.22" length="6.21" shape="470.90,1425.22 474.39,1430.36"/>
    </edge>
    <edge id=":1644022122_0" function="internal">
        <lane id=":1644022122_0_0" index="0" speed="22.22" length="5.72" shape="469.85,1453.01 468.70,1458.61"/>
    </edge>
    <edge id=":1644022122_1" function="internal">
        <lane id=":1644022122_1_0" index="0" speed="22.22" length="5.88" shape="469.85,1453.01 465.02,1456.35"/>
    </edge>
    <edge id=":1644162016_0" function="internal">
        <lane id=":1644162016_0_0" index="0" speed="22.22" length="3.40" shape="1344.75,1087.40 1342.34,1089.79"/>
    </edge>
    <edge id=":1644162016_1" function="internal">
        <lane id=":1644162016_1_0" index="0" speed="22.22" length="2.41" shape="1344.75,1087.40 1343.28,1087.59 1342.43,1087.24"/>
    </edge>
    <edge id=":1644162016_4" function="internal">
        <lane id=":1644162016_4_0" index="0" speed="22.22" length="2.41" shape="1342.43,1087.24 1342.19,1086.35 1342.58,1084.91"/>
    </edge>
    <edge id=":1644162016_2" function="internal">
        <lane id=":1644162016_2_0" index="0" speed="22.22" length="3.38" shape="1339.78,1086.80 1342.58,1084.91"/>
    </edge>
    <edge id=":1644162016_3" function="internal">
        <lane id=":1644162016_3_0" index="0" speed="22.22" length="10.98" shape="1339.78,1086.80 1343.40,1085.24 1345.03,1085.22 1344.68,1086.74 1342.34,1089.79"/>
    </edge>
    <edge id=":1644162092_0" function="internal">
        <lane id=":1644162092_0_0" index="0" speed="22.22" length="0.25" shape="1600.78,857.38 1600.59,857.55"/>
    </edge>
    <edge id=":1644162092_1" function="internal">
        <lane id=":1644162092_1_0" index="0" speed="22.22" length="2.40" shape="1600.78,857.38 1599.31,857.58 1598.46,857.24"/>
    </edge>
    <edge id=":1644162092_4" function="internal">
        <lane id=":1644162092_4_0" index="0" speed="22.22" length="2.40" shape="1598.46,857.24 1598.22,856.35 1598.59,854.92"/>
    </edge>
    <edge id=":1644162092_2" function="internal">
        <lane id=":1644162092_2_0" index="0" speed="22.22" length="0.55" shape="1598.18,855.28 1598.59,854.92"/>
    </edge>
    <edge id=":1644162092_3" function="internal">
        <lane id=":1644162092_3_0" index="0" speed="22.22" length="2.42" shape="1598.18,855.28 1599.63,854.94 1600.52,855.21"/>
    </edge>
    <edge id=":1644162092_5" function="internal">
        <lane id=":1644162092_5_0" index="0" speed="22.22" length="2.42" shape="1600.52,855.21 1600.84,856.08 1600.59,857.55"/>
    </edge>
    <edge id=":1644175154_0" function="internal">
        <lane id=":1644175154_0_0" index="0" speed="18.06" length="6.97" shape="847.68,1136.14 842.83,1141.15"/>
    </edge>
    <edge id=":1644175154_1" function="internal">
        <lane id=":1644175154_1_0" index="0" speed="13.89" length="6.22" shape="843.51,1135.33 843.97,1137.26 844.01,1138.88 843.63,1140.17 842.83,1141.15"/>
    </edge>
    <edge id=":1644175170_0" function="internal">
        <lane id=":1644175170_0_0" index="0" speed="22.22" length="6.07" shape="581.17,876.76 586.32,873.55"/>
    </edge>
    <edge id=":1644175170_1" function="internal">
        <lane id=":1644175170_1_0" index="0" speed="18.06" length="6.36" shape="584.35,879.59 586.32,873.55"/>
    </edge>
    <edge id=":1644175211_0" function="internal">
        <lane id=":1644175211_0_0" index="0" speed="15.28" length="5.02" shape="608.20,869.00 613.22,868.80"/>
    </edge>
    <edge id=":1644175211_1" function="internal">
        <lane id=":1644175211_1_0" index="0" speed="18.06" length="4.98" shape="608.20,869.00 611.48,872.75"/>
    </edge>
    <edge id=":1644175231_0" function="internal">
        <lane id=":1644175231_0_0" index="0" speed="18.06" length="4.98" shape="1023.33,574.60 1022.25,574.43 1021.09,574.53 1019.87,574.90 1018.58,575.55"/>
    </edge>
    <edge id=":1644175231_1" function="internal">
        <lane id=":1644175231_1_0" index="0" speed="18.06" length="4.90" shape="1023.33,574.60 1019.70,571.31"/>
    </edge>
    <edge id=":1644175233_0" function="internal">
        <lane id=":1644175233_0_0" index="0" speed="13.89" length="6.79" shape="1125.45,879.26 1119.06,881.55"/>
    </edge>
    <edge id=":1644175233_1" function="internal">
        <lane id=":1644175233_1_0" index="0" speed="13.89" length="6.94" shape="1125.45,879.26 1123.35,879.23 1121.64,878.80 1120.32,877.99 1119.37,876.79"/>
    </edge>
    <edge id=":1644175281_0" function="internal">
        <lane id=":1644175281_0_0" index="0" speed="22.22" length="5.53" shape="1018.39,568.50 1017.55,563.04"/>
    </edge>
    <edge id=":1644175281_1" function="internal">
        <lane id=":1644175281_1_0" index="0" speed="15.28" length="5.86" shape="1014.18,567.84 1017.55,563.04"/>
    </edge>
    <edge id=":1644175287_0" function="internal">
        <lane id=":1644175287_0_0" index="0" speed="22.22" length="6.40" shape="1404.53,647.70 1398.33,649.31"/>
    </edge>
    <edge id=":1644175287_1" function="internal">
        <lane id=":1644175287_1_0" index="0" speed="22.22" length="6.66" shape="1404.53,647.70 1398.43,645.03"/>
    </edge>
    <edge id=":1644175324_0" function="internal">
        <lane id=":1644175324_0_0" index="0" speed="18.06" length="0.10" shape="910.94,1062.34 910.94,1062.33"/>
    </edge>
    <edge id=":1644175324_1" function="internal">
        <lane id=":1644175324_1_0" index="0" speed="13.89" length="2.41" shape="910.94,1062.34 909.46,1062.52 908.61,1062.17"/>
    </edge>
    <edge id=":1644175324_4" function="internal">
        <lane id=":1644175324_4_0" index="0" speed="13.89" length="2.41" shape="908.61,1062.17 908.38,1061.28 908.78,1059.84"/>
    </edge>
    <edge id=":1644175324_2" function="internal">
        <lane id=":1644175324_2_0" index="0" speed="18.06" length="0.10" shape="908.78,1059.84 908.78,1059.84"/>
    </edge>
    <edge id=":1644175324_3" function="internal">
        <lane id=":1644175324_3_0" index="0" speed="22.22" length="2.41" shape="908.78,1059.84 910.25,1059.65 911.11,1060.00"/>
    </edge>